Version 4
SHEET 1 2208 680
WIRE 1168 -208 -352 -208
WIRE 1280 -208 1168 -208
WIRE 1424 -208 1360 -208
WIRE -352 -112 -352 -208
WIRE 352 -96 -160 -96
WIRE 656 -96 432 -96
WIRE 1008 -64 1008 -112
WIRE -160 32 -160 -96
WIRE -48 32 -160 32
WIRE 208 32 176 32
WIRE 448 32 416 32
WIRE 656 32 656 -96
WIRE 688 32 656 32
WIRE 1168 32 1168 -208
WIRE 1424 32 1424 -208
WIRE -352 48 -352 -32
WIRE -272 48 -352 48
WIRE -160 48 -160 32
WIRE -160 48 -208 48
WIRE 176 48 176 32
WIRE 176 48 64 48
WIRE 416 48 416 32
WIRE 416 48 320 48
WIRE 656 48 656 32
WIRE 656 48 560 48
WIRE 1008 48 1008 0
WIRE 1008 48 800 48
WIRE -160 64 -160 48
WIRE -48 64 -160 64
WIRE 176 64 176 48
WIRE 208 64 176 64
WIRE 416 64 416 48
WIRE 448 64 416 64
WIRE 688 144 688 64
WIRE 1008 144 1008 48
WIRE 1008 144 688 144
WIRE 688 176 688 144
WIRE -352 192 -352 48
WIRE -352 368 -352 272
WIRE 688 368 688 256
WIRE 688 368 -352 368
WIRE 1168 368 1168 96
WIRE 1168 368 688 368
WIRE 1424 368 1424 112
WIRE 1424 368 1168 368
WIRE 688 416 688 368
FLAG 688 416 0
SYMBOL voltage 1424 16 R0
WINDOW 123 0 0 Left 2
WINDOW 39 0 0 Left 2
SYMATTR InstName V1
SYMATTR Value 9
SYMBOL res -368 -128 R0
SYMATTR InstName R1
SYMATTR Value 3k
SYMBOL cap -208 32 R90
WINDOW 0 0 32 VBottom 2
WINDOW 3 32 32 VTop 2
SYMATTR InstName C1
SYMATTR Value 68n
SYMBOL res 448 -112 R90
WINDOW 0 0 56 VBottom 2
WINDOW 3 32 56 VTop 2
SYMATTR InstName R2
SYMATTR Value 4.7k
SYMBOL cap 992 -64 R0
SYMATTR InstName C2
SYMATTR Value 100p
SYMBOL res 704 272 R180
WINDOW 0 36 76 Left 2
WINDOW 3 36 40 Left 2
SYMATTR InstName R3
SYMATTR Value 750
SYMBOL res 1376 -224 R90
WINDOW 0 0 56 VBottom 2
WINDOW 3 32 56 VTop 2
SYMATTR InstName R4
SYMATTR Value 150
SYMBOL Dig_Add\\74HC\\74hc00 0 -16 R0
SYMATTR InstName U1
SYMATTR SpiceLine VCC=5.1  SPEED=1.0  TRIPDT=1e-9
SYMBOL Dig_Add\\74HC\\74hc00 256 -16 R0
SYMATTR InstName U2
SYMATTR SpiceLine VCC=5.1  SPEED=1.0  TRIPDT=1e-9
SYMBOL Dig_Add\\74HC\\74hc00 496 -16 R0
SYMATTR InstName U3
SYMATTR SpiceLine VCC=5.1  SPEED=1.0  TRIPDT=1e-9
SYMBOL Dig_Add\\74HC\\74hc00 736 -16 R0
SYMATTR InstName U4
SYMATTR SpiceLine VCC=5.1  SPEED=1.0  TRIPDT=1e-9
SYMBOL zener 1184 96 R180
WINDOW 0 24 64 Left 2
WINDOW 3 24 0 Left 2
SYMATTR InstName D3
SYMATTR Value 1N751
SYMBOL voltage -720 128 R0
SYMATTR InstName V2
SYMATTR Value wavefile=sound.wav
SYMBOL voltage -352 176 R0
WINDOW 123 0 0 Left 0
WINDOW 39 0 0 Left 0
SYMATTR InstName V3
SYMATTR Value SINE(0 0 50k)
TEXT -384 440 Left 2 !.tran 1m
TEXT -640 336 Left 2 !.inc 74HC.lib
